Version 4
SHEET 1 880 1128
WIRE 240 0 48 0
WIRE 560 0 496 0
WIRE 48 112 48 0
WIRE 368 304 368 96
WIRE 368 304 304 304
WIRE 480 304 368 304
WIRE 560 304 560 0
WIRE 304 352 304 304
WIRE 560 432 560 304
WIRE 560 432 496 432
WIRE 304 496 304 432
WIRE 304 496 80 496
WIRE 304 512 304 496
WIRE 32 576 -48 576
WIRE 560 576 560 432
WIRE 576 576 560 576
WIRE 304 592 80 592
WIRE 576 608 576 576
WIRE 400 656 256 656
WIRE 496 656 496 512
WIRE 496 656 480 656
WIRE 512 656 496 656
WIRE 256 752 256 656
WIRE 576 752 576 704
WIRE 96 800 -48 800
WIRE 192 800 176 800
WIRE 576 864 576 816
WIRE 256 912 256 848
WIRE 576 992 576 944
WIRE 576 1088 576 1056
FLAG 48 192 0
FLAG 80 592 0
FLAG 576 1088 0
FLAG 256 912 0
FLAG -48 656 0
FLAG -48 880 0
SYMBOL voltage 48 96 R0
WINDOW 123 0 0 Left 2
WINDOW 39 0 0 Left 2
SYMATTR InstName V1
SYMATTR Value 12
SYMBOL nmos 32 496 R0
SYMATTR InstName M1
SYMATTR Value BSZ340N08NS3
SYMBOL res 288 496 R0
SYMATTR InstName R1
SYMATTR Value 374
SYMBOL res 288 336 R0
SYMATTR InstName R2
SYMATTR Value 866
SYMBOL res 576 288 R90
WINDOW 0 0 56 VBottom 2
WINDOW 3 32 56 VTop 2
SYMATTR InstName R3
SYMATTR Value 240
SYMBOL res 512 528 R180
WINDOW 0 36 76 Left 2
WINDOW 3 36 40 Left 2
SYMATTR InstName R4
SYMATTR Value 10k
SYMBOL res 384 672 R270
WINDOW 0 32 56 VTop 2
WINDOW 3 0 56 VBottom 2
SYMATTR InstName R5
SYMATTR Value 2.2k
SYMBOL res 80 816 R270
WINDOW 0 32 56 VTop 2
WINDOW 3 0 56 VBottom 2
SYMATTR InstName R6
SYMATTR Value 10k
SYMBOL res 560 848 R0
SYMATTR InstName R7
SYMATTR Value 10k
SYMBOL diode 560 752 R0
SYMATTR InstName D1
SYMATTR Value 1N4148
SYMBOL diode 560 992 R0
SYMATTR InstName D2
SYMATTR Value 1N4148
SYMBOL PowerProducts\\LT1083 368 0 R0
SYMATTR InstName U1
SYMBOL npn 192 752 R0
SYMATTR InstName Q1
SYMATTR Value 2N2222
SYMBOL npn 512 608 R0
SYMATTR InstName Q2
SYMATTR Value 2N2222
SYMBOL voltage -48 560 R0
WINDOW 123 0 0 Left 2
WINDOW 39 0 0 Left 2
SYMATTR InstName V2
SYMATTR Value 0
SYMBOL voltage -48 784 R0
WINDOW 123 0 0 Left 2
WINDOW 39 0 0 Left 2
SYMATTR InstName V3
SYMATTR Value 5
TEXT -80 1112 Left 2 !.tran 1m
